lig_f277.pdb
 OpenBabel07102012393D

 72 76  0  0  1  0  0  0  0  0999 V2000
    7.3350    1.3310   -8.3700 N   0  0  0  0  0  0  0  0  0  0  0  0
    8.0050    0.0740  -10.3740 C   0  0  0  0  0  0  0  0  0  0  0  0
    6.3440   -1.1480  -11.5180 O   0  0  0  0  0  0  0  0  0  0  0  0
    0.0550    1.0270  -17.6110 F   0  0  0  0  0  0  0  0  0  0  0  0
    0.8210    0.1520  -17.0260 C   0  0  0  0  0  0  0  0  0  0  0  0
    0.5490   -1.0040  -17.5760 F   0  0  0  0  0  0  0  0  0  0  0  0
    2.1370    0.5080  -17.3830 F   0  0  0  0  0  0  0  0  0  0  0  0
    0.6360    0.0940  -15.4980 C   0  0  1  0  0  0  0  0  0  0  0  0
    1.6430   -0.9900  -14.8940 C   0  0  0  0  0  0  0  0  0  0  0  0
    1.0950   -1.8840  -13.9890 C   0  0  0  0  0  0  0  0  0  0  0  0
    1.9630   -2.8220  -13.3520 C   0  0  0  0  0  0  0  0  0  0  0  0
    3.2930   -2.9600  -13.8690 C   0  0  0  0  0  0  0  0  0  0  0  0
    3.8250   -1.9590  -14.6540 C   0  0  0  0  0  0  0  0  0  0  0  0
    3.0530   -1.0000  -15.2140 C   0  0  0  0  0  0  0  0  0  0  0  0
    0.7200    1.4830  -14.8690 C   0  0  0  0  0  0  0  0  0  0  0  0
    0.3950    1.3640  -13.4090 C   0  0  0  0  0  0  0  0  0  0  0  0
   -0.7410    1.0880  -13.0870 O   0  0  0  0  0  0  0  0  0  0  0  0
    1.3620    1.4410  -12.4010 N   0  0  0  0  0  0  0  0  0  0  0  0
    0.9720    1.1190  -11.0420 C   0  0  0  0  0  0  0  0  0  0  0  0
    1.9420    0.1900  -10.3360 C   0  0  0  0  0  0  0  0  0  0  0  0
    2.8410    1.7240  -12.6800 C   0  0  0  0  0  0  0  0  0  0  0  0
    3.7850    0.7410  -11.9790 C   0  0  0  0  0  0  0  0  0  0  0  0
    3.4440    0.5680  -10.4680 C   0  0  1  0  0  0  0  0  0  0  0  0
    3.5520    1.8410   -9.8550 O   0  0  0  0  0  0  0  0  0  0  0  0
    4.3570   -0.4690   -9.6930 C   0  0  0  0  0  0  0  0  0  0  0  0
    5.7580   -0.0080   -9.6500 N   0  0  0  0  0  0  0  0  0  0  0  0
    6.1350    0.9420   -8.6800 C   0  0  0  0  0  0  0  0  0  0  0  0
    6.6930   -0.4260  -10.6070 C   0  0  0  0  0  0  0  0  0  0  0  0
    9.0970   -0.2730  -10.9900 N   0  0  0  0  0  0  0  0  0  0  0  0
   10.0780    0.4080  -10.3760 N   0  0  0  0  0  0  0  0  0  0  0  0
   11.4160    0.7140  -10.9410 C   0  0  0  0  0  0  0  0  0  0  0  0
    9.5830    1.1910   -9.3030 C   0  0  0  0  0  0  0  0  0  0  0  0
    8.2450    0.8840   -9.3060 C   0  0  0  0  0  0  0  0  0  0  0  0
   10.0860    2.2280   -8.4850 C   0  0  0  0  0  0  0  0  0  0  0  0
    9.4450    3.4690   -8.4200 C   0  0  0  0  0  0  0  0  0  0  0  0
    9.9810    4.4240   -7.5630 C   0  0  0  0  0  0  0  0  0  0  0  0
   11.2220    4.1620   -6.8980 C   0  0  0  0  0  0  0  0  0  0  0  0
   11.7900    5.3940   -6.1780 C   0  0  0  0  0  0  0  0  0  0  0  0
   12.8170    6.0570   -6.9380 N   0  3  0  0  0  0  0  0  0  0  0  0
   11.9160    2.9840   -7.0520 C   0  0  0  0  0  0  0  0  0  0  0  0
   11.3850    2.0140   -7.8950 C   0  0  0  0  0  0  0  0  0  0  0  0
   -0.3770   -0.2670  -15.2800 H   0  0  0  0  0  0  0  0  0  0  0  0
    0.0460   -1.8880  -13.7080 H   0  0  0  0  0  0  0  0  0  0  0  0
    1.5360   -3.5440  -12.6630 H   0  0  0  0  0  0  0  0  0  0  0  0
    3.9020   -3.8070  -13.5670 H   0  0  0  0  0  0  0  0  0  0  0  0
    4.8990   -1.9580  -14.8140 H   0  0  0  0  0  0  0  0  0  0  0  0
    3.5250   -0.1030  -15.6030 H   0  0  0  0  0  0  0  0  0  0  0  0
   -0.0410    2.1500  -15.2920 H   0  0  0  0  0  0  0  0  0  0  0  0
    1.6140    2.0860  -15.0720 H   0  0  0  0  0  0  0  0  0  0  0  0
   -0.0220    0.6620  -10.9520 H   0  0  0  0  0  0  0  0  0  0  0  0
    0.9310    2.0710  -10.4980 H   0  0  0  0  0  0  0  0  0  0  0  0
    1.7180   -0.7670  -10.8230 H   0  0  0  0  0  0  0  0  0  0  0  0
    1.7240   -0.0370   -9.2850 H   0  0  0  0  0  0  0  0  0  0  0  0
    2.9720    2.7680  -12.3700 H   0  0  0  0  0  0  0  0  0  0  0  0
    3.0430    1.6100  -13.7520 H   0  0  0  0  0  0  0  0  0  0  0  0
    4.8190    0.9980  -12.2390 H   0  0  0  0  0  0  0  0  0  0  0  0
    3.7910   -0.2380  -12.4720 H   0  0  0  0  0  0  0  0  0  0  0  0
    4.1900    2.3630  -10.3720 H   0  0  0  0  0  0  0  0  0  0  0  0
    4.3160   -1.4270  -10.2240 H   0  0  0  0  0  0  0  0  0  0  0  0
    3.9180   -0.6460   -8.7030 H   0  0  0  0  0  0  0  0  0  0  0  0
    5.2180    1.2120   -8.1730 H   0  0  0  0  0  0  0  0  0  0  0  0
   11.8340   -0.1980  -11.3850 H   0  0  0  0  0  0  0  0  0  0  0  0
   12.0830    1.1100  -10.1660 H   0  0  0  0  0  0  0  0  0  0  0  0
   11.3440    1.4750  -11.7280 H   0  0  0  0  0  0  0  0  0  0  0  0
    8.5480    3.6080   -9.0170 H   0  0  0  0  0  0  0  0  0  0  0  0
    9.4080    5.3460   -7.5240 H   0  0  0  0  0  0  0  0  0  0  0  0
   12.1270    4.9950   -5.2130 H   0  0  0  0  0  0  0  0  0  0  0  0
   11.0360    6.1540   -5.9410 H   0  0  0  0  0  0  0  0  0  0  0  0
   12.3990    6.0350   -7.8670 H   0  0  0  0  0  0  0  0  0  0  0  0
   13.5500    5.3850   -7.1620 H   0  0  0  0  0  0  0  0  0  0  0  0
   12.9000    2.7590   -6.6510 H   0  0  0  0  0  0  0  0  0  0  0  0
   11.9360    1.1000   -8.0960 H   0  0  0  0  0  0  0  0  0  0  0  0
  1 27  2  0  0  0  0
  1 33  1  0  0  0  0
  2 28  1  0  0  0  0
  2 29  2  0  0  0  0
  2 33  1  0  0  0  0
  3 28  2  0  0  0  0
  4  5  1  0  0  0  0
  5  6  1  0  0  0  0
  5  7  1  0  0  0  0
  5  8  1  0  0  0  0
  8  9  1  0  0  0  0
  8 15  1  0  0  0  0
  8 42  1  1  0  0  0
  9 10  2  0  0  0  0
  9 14  1  0  0  0  0
 10 11  1  0  0  0  0
 10 43  1  0  0  0  0
 11 12  2  0  0  0  0
 11 44  1  0  0  0  0
 12 13  1  0  0  0  0
 12 45  1  0  0  0  0
 13 14  2  0  0  0  0
 13 46  1  0  0  0  0
 14 47  1  0  0  0  0
 15 16  1  0  0  0  0
 15 48  1  0  0  0  0
 15 49  1  0  0  0  0
 16 17  2  0  0  0  0
 16 18  1  0  0  0  0
 18 19  1  0  0  0  0
 18 21  1  0  0  0  0
 19 20  1  0  0  0  0
 19 50  1  0  0  0  0
 19 51  1  0  0  0  0
 20 23  1  0  0  0  0
 20 52  1  0  0  0  0
 20 53  1  0  0  0  0
 21 22  1  0  0  0  0
 21 54  1  0  0  0  0
 21 55  1  0  0  0  0
 22 23  1  0  0  0  0
 22 56  1  0  0  0  0
 22 57  1  0  0  0  0
 23 24  1  1  0  0  0
 23 25  1  0  0  0  0
 24 58  1  0  0  0  0
 25 26  1  0  0  0  0
 25 59  1  0  0  0  0
 25 60  1  0  0  0  0
 26 27  1  0  0  0  0
 26 28  1  0  0  0  0
 27 61  1  0  0  0  0
 29 30  1  0  0  0  0
 30 31  1  0  0  0  0
 30 32  1  0  0  0  0
 31 62  1  0  0  0  0
 31 63  1  0  0  0  0
 31 64  1  0  0  0  0
 32 33  2  0  0  0  0
 32 34  1  0  0  0  0
 34 35  2  0  0  0  0
 34 41  1  0  0  0  0
 35 36  1  0  0  0  0
 35 65  1  0  0  0  0
 36 37  2  0  0  0  0
 36 66  1  0  0  0  0
 37 38  1  0  0  0  0
 37 40  1  0  0  0  0
 38 39  1  0  0  0  0
 38 67  1  0  0  0  0
 38 68  1  0  0  0  0
 39 69  1  0  0  0  0
 39 70  1  0  0  0  0
 40 41  2  0  0  0  0
 40 71  1  0  0  0  0
 41 72  1  0  0  0  0
M  CHG  1  39   1
M  END
$$$$
