lig_f332.pdb
 OpenBabel07102012403D

 72 76  0  0  1  0  0  0  0  0999 V2000
    8.1480    1.3000   -9.0440 N   0  0  0  0  0  0  0  0  0  0  0  0
    8.4420   -0.4950  -10.7680 C   0  0  0  0  0  0  0  0  0  0  0  0
    6.4310   -1.5520  -11.4960 O   0  0  0  0  0  0  0  0  0  0  0  0
    2.2750   -0.3270  -18.1640 F   0  0  0  0  0  0  0  0  0  0  0  0
    1.4720    0.3520  -17.3340 C   0  0  0  0  0  0  0  0  0  0  0  0
    1.9530    1.5870  -17.2340 F   0  0  0  0  0  0  0  0  0  0  0  0
    0.3030    0.3850  -18.0070 F   0  0  0  0  0  0  0  0  0  0  0  0
    1.4290   -0.3580  -15.9290 C   0  0  1  0  0  0  0  0  0  0  0  0
    2.8240   -0.9390  -15.5830 C   0  0  0  0  0  0  0  0  0  0  0  0
    2.8570   -2.2500  -15.1590 C   0  0  0  0  0  0  0  0  0  0  0  0
    4.0030   -2.7310  -14.5480 C   0  0  0  0  0  0  0  0  0  0  0  0
    5.2250   -2.0610  -14.5010 C   0  0  0  0  0  0  0  0  0  0  0  0
    5.2400   -0.8250  -15.1480 C   0  0  0  0  0  0  0  0  0  0  0  0
    4.0440   -0.2350  -15.6350 C   0  0  0  0  0  0  0  0  0  0  0  0
    0.8710    0.5370  -14.8320 C   0  0  0  0  0  0  0  0  0  0  0  0
    0.9990   -0.0230  -13.4260 C   0  0  0  0  0  0  0  0  0  0  0  0
    0.1820   -0.8500  -13.1190 O   0  0  0  0  0  0  0  0  0  0  0  0
    1.6530    0.6860  -12.4850 N   0  0  0  0  0  0  0  0  0  0  0  0
    1.2270    0.5340  -11.0950 C   0  0  0  0  0  0  0  0  0  0  0  0
    2.3250   -0.1760  -10.2600 C   0  0  0  0  0  0  0  0  0  0  0  0
    2.8810    1.6530  -12.6360 C   0  0  0  0  0  0  0  0  0  0  0  0
    4.0250    0.9220  -11.9160 C   0  0  0  0  0  0  0  0  0  0  0  0
    3.6790    0.5810  -10.4600 C   0  0  1  0  0  0  0  0  0  0  0  0
    3.5150    1.8660   -9.7360 O   0  0  0  0  0  0  0  0  0  0  0  0
    4.7530   -0.3580   -9.7200 C   0  0  0  0  0  0  0  0  0  0  0  0
    6.2050    0.0330   -9.9340 N   0  0  0  0  0  0  0  0  0  0  0  0
    6.8350    0.9410   -9.1000 C   0  0  0  0  0  0  0  0  0  0  0  0
    6.9700   -0.7120  -10.8100 C   0  0  0  0  0  0  0  0  0  0  0  0
    9.4470   -1.1150  -11.3800 N   0  0  0  0  0  0  0  0  0  0  0  0
   10.5180   -0.3720  -11.0010 N   0  0  0  0  0  0  0  0  0  0  0  0
   11.8090   -0.6150  -11.6090 C   0  0  0  0  0  0  0  0  0  0  0  0
   10.2050    0.6210  -10.0980 C   0  0  0  0  0  0  0  0  0  0  0  0
    8.8780    0.5240   -9.9230 C   0  0  0  0  0  0  0  0  0  0  0  0
   11.0870    1.5450   -9.3300 C   0  0  0  0  0  0  0  0  0  0  0  0
   12.0190    2.3610  -10.0450 C   0  0  0  0  0  0  0  0  0  0  0  0
   12.9260    3.1210   -9.3750 C   0  0  0  0  0  0  0  0  0  0  0  0
   12.9550    3.1300   -7.9620 C   0  0  0  0  0  0  0  0  0  0  0  0
   13.9110    4.0430   -7.2770 C   0  0  0  0  0  0  0  0  0  0  0  0
   15.2870    3.5800   -7.4660 N   0  3  0  0  0  0  0  0  0  0  0  0
   12.0140    2.3800   -7.2680 C   0  0  0  0  0  0  0  0  0  0  0  0
   11.0490    1.5850   -7.9070 C   0  0  0  0  0  0  0  0  0  0  0  0
    0.7790   -1.2180  -16.1330 H   0  0  0  0  0  0  0  0  0  0  0  0
    1.9160   -2.7920  -15.1600 H   0  0  0  0  0  0  0  0  0  0  0  0
    3.9870   -3.6980  -14.0540 H   0  0  0  0  0  0  0  0  0  0  0  0
    6.1740   -2.4650  -14.1620 H   0  0  0  0  0  0  0  0  0  0  0  0
    6.1470   -0.2290  -15.1900 H   0  0  0  0  0  0  0  0  0  0  0  0
    4.0790    0.8150  -15.9120 H   0  0  0  0  0  0  0  0  0  0  0  0
   -0.2130    0.7030  -14.8370 H   0  0  0  0  0  0  0  0  0  0  0  0
    1.1640    1.5910  -14.7460 H   0  0  0  0  0  0  0  0  0  0  0  0
    0.3560   -0.1320  -11.0440 H   0  0  0  0  0  0  0  0  0  0  0  0
    1.0230    1.5110  -10.6410 H   0  0  0  0  0  0  0  0  0  0  0  0
    2.4100   -1.1950  -10.6570 H   0  0  0  0  0  0  0  0  0  0  0  0
    2.0160   -0.1780   -9.2070 H   0  0  0  0  0  0  0  0  0  0  0  0
    2.6860    2.6360  -12.1910 H   0  0  0  0  0  0  0  0  0  0  0  0
    3.2040    1.7540  -13.6800 H   0  0  0  0  0  0  0  0  0  0  0  0
    4.9950    1.4320  -11.9730 H   0  0  0  0  0  0  0  0  0  0  0  0
    4.2840   -0.0130  -12.4280 H   0  0  0  0  0  0  0  0  0  0  0  0
    4.2270    2.4420  -10.0650 H   0  0  0  0  0  0  0  0  0  0  0  0
    4.5950   -1.4070   -9.9960 H   0  0  0  0  0  0  0  0  0  0  0  0
    4.5910   -0.2860   -8.6370 H   0  0  0  0  0  0  0  0  0  0  0  0
    6.1250    1.4200   -8.4390 H   0  0  0  0  0  0  0  0  0  0  0  0
   12.0870   -1.6490  -11.3710 H   0  0  0  0  0  0  0  0  0  0  0  0
   12.4910    0.1470  -11.2120 H   0  0  0  0  0  0  0  0  0  0  0  0
   11.9040   -0.4150  -12.6840 H   0  0  0  0  0  0  0  0  0  0  0  0
   11.9790    2.2840  -11.1270 H   0  0  0  0  0  0  0  0  0  0  0  0
   13.6830    3.6840   -9.9130 H   0  0  0  0  0  0  0  0  0  0  0  0
   13.8310    4.1240   -6.1860 H   0  0  0  0  0  0  0  0  0  0  0  0
   13.7560    5.0480   -7.6880 H   0  0  0  0  0  0  0  0  0  0  0  0
   15.2860    2.6040   -7.1750 H   0  0  0  0  0  0  0  0  0  0  0  0
   15.7840    4.0570   -6.7150 H   0  0  0  0  0  0  0  0  0  0  0  0
   12.0520    2.3850   -6.1830 H   0  0  0  0  0  0  0  0  0  0  0  0
   10.3470    0.9820   -7.3390 H   0  0  0  0  0  0  0  0  0  0  0  0
  1 27  2  0  0  0  0
  1 33  1  0  0  0  0
  2 28  1  0  0  0  0
  2 29  2  0  0  0  0
  2 33  1  0  0  0  0
  3 28  2  0  0  0  0
  4  5  1  0  0  0  0
  5  6  1  0  0  0  0
  5  7  1  0  0  0  0
  5  8  1  0  0  0  0
  8  9  1  0  0  0  0
  8 15  1  0  0  0  0
  8 42  1  6  0  0  0
  9 10  2  0  0  0  0
  9 14  1  0  0  0  0
 10 11  1  0  0  0  0
 10 43  1  0  0  0  0
 11 12  2  0  0  0  0
 11 44  1  0  0  0  0
 12 13  1  0  0  0  0
 12 45  1  0  0  0  0
 13 14  2  0  0  0  0
 13 46  1  0  0  0  0
 14 47  1  0  0  0  0
 15 16  1  0  0  0  0
 15 48  1  0  0  0  0
 15 49  1  0  0  0  0
 16 17  2  0  0  0  0
 16 18  1  0  0  0  0
 18 19  1  0  0  0  0
 18 21  1  0  0  0  0
 19 20  1  0  0  0  0
 19 50  1  0  0  0  0
 19 51  1  0  0  0  0
 20 23  1  0  0  0  0
 20 52  1  0  0  0  0
 20 53  1  0  0  0  0
 21 22  1  0  0  0  0
 21 54  1  0  0  0  0
 21 55  1  0  0  0  0
 22 23  1  0  0  0  0
 22 56  1  0  0  0  0
 22 57  1  0  0  0  0
 23 24  1  1  0  0  0
 23 25  1  0  0  0  0
 24 58  1  0  0  0  0
 25 26  1  0  0  0  0
 25 59  1  0  0  0  0
 25 60  1  0  0  0  0
 26 27  1  0  0  0  0
 26 28  1  0  0  0  0
 27 61  1  0  0  0  0
 29 30  1  0  0  0  0
 30 31  1  0  0  0  0
 30 32  1  0  0  0  0
 31 62  1  0  0  0  0
 31 63  1  0  0  0  0
 31 64  1  0  0  0  0
 32 33  2  0  0  0  0
 32 34  1  0  0  0  0
 34 35  2  0  0  0  0
 34 41  1  0  0  0  0
 35 36  1  0  0  0  0
 35 65  1  0  0  0  0
 36 37  2  0  0  0  0
 36 66  1  0  0  0  0
 37 38  1  0  0  0  0
 37 40  1  0  0  0  0
 38 39  1  0  0  0  0
 38 67  1  0  0  0  0
 38 68  1  0  0  0  0
 39 69  1  0  0  0  0
 39 70  1  0  0  0  0
 40 41  2  0  0  0  0
 40 71  1  0  0  0  0
 41 72  1  0  0  0  0
M  CHG  1  39   1
M  END
$$$$
