0
     RDKit          3D

 50 52  0  0  1  0  0  0  0  0999 V2000
  -24.3610  -19.8050    7.1040 N   0  0  0  0  0  4  0  0  0  0  0  0
  -23.1870  -20.8080    7.2030 C   0  0  0  0  0  0  0  0  0  0  0  0
  -22.5750  -20.9910    5.7970 C   0  0  0  0  0  0  0  0  0  0  0  0
  -21.3650  -20.9670    5.7530 O   0  0  0  0  0  0  0  0  0  0  0  0
  -23.3560  -20.7640    4.8930 O   0  0  0  0  0  1  0  0  0  0  0  0
  -23.5630  -22.1780    7.7990 C   0  0  0  0  0  0  0  0  0  0  0  0
  -22.4440  -22.9400    8.5430 C   0  0  0  0  0  0  0  0  0  0  0  0
  -22.3490  -22.7380   10.3980 S   0  0  0  0  0  3  0  0  0  0  0  0
  -21.9830  -24.5300   10.7320 C   0  0  0  0  0  0  0  0  0  0  0  0
  -24.1190  -22.7430   10.9890 C   0  0  0  0  0  0  0  0  0  0  0  0
  -24.5700  -21.3740   11.5740 C   0  0  0  0  0  0  0  0  0  0  0  0
  -23.7370  -21.0040   12.6980 O   0  0  0  0  0  0  0  0  0  0  0  0
  -24.4500  -20.1920   10.5980 C   0  0  0  0  0  0  0  0  0  0  0  0
  -25.6000  -20.0410    9.7600 O   0  0  0  0  0  0  0  0  0  0  0  0
  -24.2720  -18.9850   11.5180 C   0  0  0  0  0  0  0  0  0  0  0  0
  -25.5590  -18.4520   11.8910 O   0  0  0  0  0  0  0  0  0  0  0  0
  -23.4930  -19.5700   12.7220 C   0  0  0  0  0  0  0  0  0  0  0  0
  -22.0500  -19.3250   12.6460 N   0  0  0  0  0  0  0  0  0  0  0  0
  -21.0100  -20.2540   12.5430 C   0  0  0  0  0  0  0  0  0  0  0  0
  -19.7950  -19.6810   12.5760 N   0  0  0  0  0  0  0  0  0  0  0  0
  -20.1000  -18.3550   12.6760 C   0  0  0  0  0  0  0  0  0  0  0  0
  -19.2420  -17.2470   12.7200 C   0  0  0  0  0  0  0  0  0  0  0  0
  -17.8970  -17.3380   12.6970 N   0  0  0  0  0  0  0  0  0  0  0  0
  -19.7110  -16.0100   12.7990 N   0  0  0  0  0  0  0  0  0  0  0  0
  -21.0450  -15.8880   12.8080 C   0  0  0  0  0  0  0  0  0  0  0  0
  -21.9520  -16.8870   12.7740 N   0  0  0  0  0  0  0  0  0  0  0  0
  -21.4320  -18.1150   12.7190 C   0  0  0  0  0  0  0  0  0  0  0  0
  -25.0210  -19.8230    7.8950 H   0  0  0  0  0  0  0  0  0  0  0  0
  -23.9980  -18.8580    6.8940 H   0  0  0  0  0  0  0  0  0  0  0  0
  -24.8200  -20.0770    6.2060 H   0  0  0  0  0  0  0  0  0  0  0  0
  -22.3990  -20.3820    7.8090 H   0  0  0  0  0  0  0  0  0  0  0  0
  -24.4980  -22.1270    8.3580 H   0  0  0  0  0  0  0  0  0  0  0  0
  -23.7540  -22.8200    6.9430 H   0  0  0  0  0  0  0  0  0  0  0  0
  -22.5980  -24.0090    8.3300 H   0  0  0  0  0  0  0  0  0  0  0  0
  -21.4700  -22.6820    8.1010 H   0  0  0  0  0  0  0  0  0  0  0  0
  -22.0020  -24.7270   11.8090 H   0  0  0  0  0  0  0  0  0  0  0  0
  -22.7160  -25.1820   10.2370 H   0  0  0  0  0  0  0  0  0  0  0  0
  -20.9850  -24.7740   10.3470 H   0  0  0  0  0  0  0  0  0  0  0  0
  -24.7990  -23.0320   10.1830 H   0  0  0  0  0  0  0  0  0  0  0  0
  -24.2140  -23.4990   11.7790 H   0  0  0  0  0  0  0  0  0  0  0  0
  -25.6120  -21.4500   11.9100 H   0  0  0  0  0  0  0  0  0  0  0  0
  -23.5400  -20.3010    9.9950 H   0  0  0  0  0  0  0  0  0  0  0  0
  -26.1280  -19.3590   10.2330 H   0  0  0  0  0  0  0  0  0  0  0  0
  -23.6590  -18.2170   11.0370 H   0  0  0  0  0  0  0  0  0  0  0  0
  -25.5850  -17.5540   11.4650 H   0  0  0  0  0  0  0  0  0  0  0  0
  -23.8420  -19.1270   13.6610 H   0  0  0  0  0  0  0  0  0  0  0  0
  -21.1980  -21.3140   12.4670 H   0  0  0  0  0  0  0  0  0  0  0  0
  -17.3660  -16.5230   12.4170 H   0  0  0  0  0  0  0  0  0  0  0  0
  -17.4530  -18.2450   12.5870 H   0  0  0  0  0  0  0  0  0  0  0  0
  -21.4380  -14.8730   12.8510 H   0  0  0  0  0  0  0  0  0  0  0  0
  1  2  1  0
  2  3  1  0
  2  6  1  0
  3  4  2  0
  3  5  1  0
  6  7  1  0
  7  8  1  0
  8  9  1  0
  8 10  1  0
 10 11  1  0
 11 12  1  0
 11 13  1  0
 12 17  1  0
 13 14  1  0
 13 15  1  0
 15 16  1  0
 15 17  1  0
 17 18  1  0
 18 19  1  0
 18 27  1  0
 19 20  2  0
 20 21  1  0
 21 22  1  0
 21 27  2  0
 22 23  1  0
 22 24  2  0
 24 25  1  0
 25 26  2  0
 26 27  1  0
  1 28  1  0
  1 29  1  0
  1 30  1  0
  2 31  1  0
  6 32  1  0
  6 33  1  0
  7 34  1  0
  7 35  1  0
  9 36  1  0
  9 37  1  0
  9 38  1  0
 10 39  1  0
 10 40  1  0
 11 41  1  0
 13 42  1  0
 14 43  1  0
 15 44  1  0
 16 45  1  0
 17 46  1  0
 19 47  1  0
 23 48  1  0
 23 49  1  0
 25 50  1  0
M  CHG  3   1   1   5  -1   8   1
M  END
