6no9.pdb
     RDKit          3D

 55 58  0  0  1  0  0  0  0  0999 V2000
  -36.4500   -2.5800    6.8600 N   0  0  0  0  0  0  0  0  0  0  0  0
  -42.1700   -1.5700    5.9000 C   0  0  0  0  0  0  0  0  0  0  0  0
  -38.5400   -2.3000    6.3000 C   0  0  0  0  0  0  0  0  0  0  0  0
  -35.2100   -2.8200    7.6100 C   0  0  0  0  0  0  0  0  0  0  0  0
  -43.2600   -1.3400    5.0800 C   0  0  0  0  0  0  0  0  0  0  0  0
  -43.7700   -1.3500    7.4700 C   0  0  0  0  0  0  0  0  0  0  0  0
  -44.3700   -1.4300    8.8100 C   0  0  0  0  0  0  0  0  0  0  0  0
  -43.7700   -2.2300    9.8200 C   0  0  0  0  0  0  0  0  0  0  0  0
  -44.3500   -2.3600   11.0900 C   0  0  0  0  0  0  0  0  0  0  0  0
  -45.5500   -1.7100   11.3900 C   0  0  0  0  0  0  0  0  0  0  0  0
  -46.1600   -0.9000   10.4100 C   0  0  0  0  0  0  0  0  0  0  0  0
  -45.5800   -0.7600    9.1400 C   0  0  0  0  0  0  0  0  0  0  0  0
  -37.9100   -4.2800    9.1700 C   0  0  0  0  0  0  0  0  0  0  0  0
  -38.3300   -4.5000   10.6400 C   0  0  0  0  0  0  0  0  0  0  0  0
  -39.7700   -4.0100   10.9800 C   0  0  2  0  0  0  0  0  0  0  0  0
  -39.7900   -2.5100   11.3800 C   0  0  1  0  0  0  0  0  0  0  0  0
  -37.7500   -2.6300    7.3400 C   0  0  0  0  0  0  0  0  0  0  0  0
  -39.4500   -1.5500   10.2100 C   0  0  0  0  0  0  0  0  0  0  0  0
  -38.0500   -1.7600    9.6200 C   0  0  0  0  0  0  0  0  0  0  0  0
  -37.7000   -2.1300    5.1700 C   0  0  0  0  0  0  0  0  0  0  0  0
  -40.8100   -1.8500    5.3600 C   0  0  0  0  0  0  0  0  0  0  0  0
  -46.1800    0.0600    8.2600 F   0  0  0  0  0  0  0  0  0  0  0  0
  -42.6300   -2.9200    9.5900 F   0  0  0  0  0  0  0  0  0  0  0  0
  -41.0100   -2.1700   11.8500 F   0  0  0  0  0  0  0  0  0  0  0  0
  -42.4700   -1.5100    7.2500 N   0  0  0  0  0  0  0  0  0  0  0  0
  -43.2600   -1.3200    3.7100 N   0  0  0  0  0  0  0  0  0  0  0  0
  -38.0500   -2.8800    8.6700 N   0  0  0  0  0  0  0  0  0  0  0  0
  -40.3900   -4.9200   12.0400 N   0  0  0  0  0  4  0  0  0  0  0  0
  -36.4200   -2.2600    5.5200 N   0  0  0  0  0  0  0  0  0  0  0  0
  -39.9200   -2.1200    6.3700 N   0  0  0  0  0  0  0  0  0  0  0  0
  -40.5200   -1.8600    4.1700 O   0  0  0  0  0  0  0  0  0  0  0  0
  -44.7000   -1.0500    6.0000 S   0  0  0  0  0  0  0  0  0  0  0  0
  -42.4000   -1.6200    3.2500 H   0  0  0  0  0  0  0  0  0  0  0  0
  -44.1300   -1.2600    3.1700 H   0  0  0  0  0  0  0  0  0  0  0  0
  -40.5300   -5.8800   11.6500 H   0  0  0  0  0  0  0  0  0  0  0  0
  -41.3700   -4.6400   12.3300 H   0  0  0  0  0  0  0  0  0  0  0  0
  -39.8800   -5.0100   12.9200 H   0  0  0  0  0  0  0  0  0  0  0  0
  -40.3600   -2.1800    7.2800 H   0  0  0  0  0  0  0  0  0  0  0  0
  -35.1900   -2.1700    8.4800 H   0  0  0  0  0  0  0  0  0  0  0  0
  -35.2000   -3.8600    7.9500 H   0  0  0  0  0  0  0  0  0  0  0  0
  -34.3400   -2.6400    6.9700 H   0  0  0  0  0  0  0  0  0  0  0  0
  -43.8800   -2.9800   11.8400 H   0  0  0  0  0  0  0  0  0  0  0  0
  -46.0000   -1.8300   12.3700 H   0  0  0  0  0  0  0  0  0  0  0  0
  -47.0900   -0.4000   10.6400 H   0  0  0  0  0  0  0  0  0  0  0  0
  -36.8700   -4.6100    9.0700 H   0  0  0  0  0  0  0  0  0  0  0  0
  -38.4900   -4.9600    8.5400 H   0  0  0  0  0  0  0  0  0  0  0  0
  -38.2600   -5.5800   10.8200 H   0  0  0  0  0  0  0  0  0  0  0  0
  -37.6000   -4.0400   11.3200 H   0  0  0  0  0  0  0  0  0  0  0  0
  -40.3900   -4.1200   10.0800 H   0  0  0  0  0  0  0  0  0  0  0  0
  -39.0800   -2.3500   12.2000 H   0  0  0  0  0  0  0  0  0  0  0  0
  -40.2100   -1.6400    9.4300 H   0  0  0  0  0  0  0  0  0  0  0  0
  -39.5400   -0.5200   10.5800 H   0  0  0  0  0  0  0  0  0  0  0  0
  -37.7500   -0.8400    9.1000 H   0  0  0  0  0  0  0  0  0  0  0  0
  -37.3100   -1.9300   10.4200 H   0  0  0  0  0  0  0  0  0  0  0  0
  -37.9500   -1.8600    4.1500 H   0  0  0  0  0  0  0  0  0  0  0  0
  1  4  1  0
  1 17  1  0
  1 29  1  0
  2  5  2  0
  2 21  1  0
  2 25  1  0
  3 17  2  0
  3 20  1  0
  3 30  1  0
  5 26  1  0
  5 32  1  0
  6  7  1  0
  6 25  2  0
  6 32  1  0
  7  8  2  0
  7 12  1  0
  8  9  1  0
  8 23  1  0
  9 10  2  0
 10 11  1  0
 11 12  2  0
 12 22  1  0
 13 14  1  0
 13 27  1  0
 14 15  1  0
 15 16  1  0
 15 28  1  0
 16 18  1  0
 16 24  1  0
 17 27  1  0
 18 19  1  0
 19 27  1  0
 20 29  2  0
 21 30  1  0
 21 31  2  0
 26 33  1  0
 26 34  1  0
 28 35  1  0
 28 36  1  0
 28 37  1  0
 30 38  1  0
  4 39  1  0
  4 40  1  0
  4 41  1  0
  9 42  1  0
 10 43  1  0
 11 44  1  0
 13 45  1  0
 13 46  1  0
 14 47  1  0
 14 48  1  0
 15 49  1  6
 16 50  1  1
 18 51  1  0
 18 52  1  0
 19 53  1  0
 19 54  1  0
 20 55  1  0
M  CHG  1  28   1
M  END
