
     RDKit          3D

 73 77  0  0  0  0  0  0  0  0999 V2000
   34.0100   14.0500   -6.8400 N   0  0  0  0  0  0  0  0  0  0  0  0
   34.5000   12.7600   -8.9000 C   0  0  0  0  0  0  0  0  0  0  0  0
   32.7500   11.5000   -9.9100 O   0  0  0  0  0  0  0  0  0  0  0  0
   34.8300   13.5900   -7.8400 C   0  0  0  0  0  0  0  0  0  0  0  0
   32.2800   12.8000   -8.0600 N   0  0  0  0  0  0  0  0  0  0  0  0
   26.4900   13.9300  -12.2100 O   0  0  0  0  0  0  0  0  0  0  0  0
   32.7400   13.6600   -7.0400 C   0  0  0  0  0  0  0  0  0  0  0  0
   35.5500   12.5400   -9.6900 N   0  0  0  0  0  0  0  0  0  0  0  0
   30.0900   14.8500   -8.0600 O   0  0  0  0  0  0  0  0  0  0  0  0
   33.1200   12.2700   -9.0400 C   0  0  0  0  0  0  0  0  0  0  0  0
   36.5600   13.3000   -9.1200 N   0  0  0  0  0  0  0  0  0  0  0  0
   36.1500   13.9200   -7.9400 C   0  0  0  0  0  0  0  0  0  0  0  0
   28.3400   14.6300  -11.1000 N   0  0  0  0  0  0  0  0  0  0  0  0
   37.8300   13.4600   -9.8200 C   0  0  0  0  0  0  0  0  0  0  0  0
   38.0700   17.8700   -3.2000 N   0  0  0  0  0  4  0  0  0  0  0  0
   36.8400   14.8900   -7.0800 C   0  0  0  0  0  0  0  0  0  0  0  0
   30.8200   12.5400   -8.1600 C   0  0  0  0  0  0  0  0  0  0  0  0
   30.0300   13.6800   -8.8800 C   0  0  0  0  0  0  0  0  0  0  0  0
   28.5400   13.3000   -9.0100 C   0  0  0  0  0  0  0  0  0  0  0  0
   27.7500   14.3900   -9.7600 C   0  0  0  0  0  0  0  0  0  0  0  0
   29.7400   15.0900  -11.0100 C   0  0  0  0  0  0  0  0  0  0  0  0
   30.6000   14.0100  -10.3000 C   0  0  0  0  0  0  0  0  0  0  0  0
   27.6700   14.2200  -12.2500 C   0  0  0  0  0  0  0  0  0  0  0  0
   28.4800   13.9800  -13.5400 C   0  0  0  0  0  0  0  0  0  0  0  0
   28.0600   12.6600  -14.2400 C   0  0  0  0  0  0  0  0  0  0  0  0
   28.6500   11.5000  -13.4400 C   0  0  0  0  0  0  0  0  0  0  0  0
   28.3700   12.6200  -15.7600 C   0  0  0  0  0  0  0  0  0  0  0  0
   38.0400   14.5500   -6.4300 C   0  0  0  0  0  0  0  0  0  0  0  0
   38.6900   15.4800   -5.5900 C   0  0  0  0  0  0  0  0  0  0  0  0
   38.1500   16.7700   -5.4200 C   0  0  0  0  0  0  0  0  0  0  0  0
   36.9700   17.1200   -6.1100 C   0  0  0  0  0  0  0  0  0  0  0  0
   36.3300   16.1800   -6.9300 C   0  0  0  0  0  0  0  0  0  0  0  0
   38.8400   17.7500   -4.5000 C   0  0  0  0  0  0  0  0  0  0  0  0
   30.0500   11.2800  -13.4000 C   0  0  0  0  0  0  0  0  0  0  0  0
   30.5900   10.3200  -12.5500 C   0  0  0  0  0  0  0  0  0  0  0  0
   29.7500    9.5500  -11.7300 C   0  0  0  0  0  0  0  0  0  0  0  0
   28.3700    9.7600  -11.7600 C   0  0  0  0  0  0  0  0  0  0  0  0
   27.8200   10.7500  -12.6000 C   0  0  0  0  0  0  0  0  0  0  0  0
   29.6700   12.7700  -16.0300 F   0  0  0  0  0  0  0  0  0  0  0  0
   27.7000   13.6200  -16.3800 F   0  0  0  0  0  0  0  0  0  0  0  0
   27.9500   11.4600  -16.3000 F   0  0  0  0  0  0  0  0  0  0  0  0
   31.9400   13.9600   -6.3700 H   0  0  0  0  0  0  0  0  0  0  0  0
   30.8800   15.3800   -8.4000 H   0  0  0  0  0  0  0  0  0  0  0  0
   38.6100   13.7600   -9.1100 H   0  0  0  0  0  0  0  0  0  0  0  0
   38.1100   12.5100  -10.3000 H   0  0  0  0  0  0  0  0  0  0  0  0
   37.7300   14.2300  -10.5800 H   0  0  0  0  0  0  0  0  0  0  0  0
   38.5500   18.4100   -2.4700 H   0  0  0  0  0  0  0  0  0  0  0  0
   37.1400   18.2900   -3.3600 H   0  0  0  0  0  0  0  0  0  0  0  0
   37.8500   16.9300   -2.8000 H   0  0  0  0  0  0  0  0  0  0  0  0
   30.6500   11.6000   -8.6900 H   0  0  0  0  0  0  0  0  0  0  0  0
   30.4200   12.4100   -7.1500 H   0  0  0  0  0  0  0  0  0  0  0  0
   28.4500   12.3500   -9.5500 H   0  0  0  0  0  0  0  0  0  0  0  0
   28.1000   13.1500   -8.0100 H   0  0  0  0  0  0  0  0  0  0  0  0
   27.7500   15.3300   -9.1900 H   0  0  0  0  0  0  0  0  0  0  0  0
   26.7100   14.0600   -9.8500 H   0  0  0  0  0  0  0  0  0  0  0  0
   30.1600   15.3400  -11.9900 H   0  0  0  0  0  0  0  0  0  0  0  0
   29.7700   16.0200  -10.4200 H   0  0  0  0  0  0  0  0  0  0  0  0
   31.6400   14.3400  -10.2500 H   0  0  0  0  0  0  0  0  0  0  0  0
   30.6000   13.1000  -10.9100 H   0  0  0  0  0  0  0  0  0  0  0  0
   28.3200   14.8300  -14.2000 H   0  0  0  0  0  0  0  0  0  0  0  0
   29.5600   13.9500  -13.3500 H   0  0  0  0  0  0  0  0  0  0  0  0
   26.9600   12.5800  -14.2100 H   0  0  0  0  0  0  0  0  0  0  0  0
   38.4700   13.5700   -6.5500 H   0  0  0  0  0  0  0  0  0  0  0  0
   39.6000   15.1900   -5.0800 H   0  0  0  0  0  0  0  0  0  0  0  0
   36.5500   18.1200   -6.0300 H   0  0  0  0  0  0  0  0  0  0  0  0
   35.4300   16.4500   -7.4700 H   0  0  0  0  0  0  0  0  0  0  0  0
   38.9000   18.7400   -4.9800 H   0  0  0  0  0  0  0  0  0  0  0  0
   39.8500   17.4100   -4.2800 H   0  0  0  0  0  0  0  0  0  0  0  0
   30.7200   11.8900  -14.0000 H   0  0  0  0  0  0  0  0  0  0  0  0
   31.6700   10.1900  -12.5000 H   0  0  0  0  0  0  0  0  0  0  0  0
   30.1700    8.8100  -11.0600 H   0  0  0  0  0  0  0  0  0  0  0  0
   27.7100    9.2000  -11.1100 H   0  0  0  0  0  0  0  0  0  0  0  0
   26.7500   10.9400  -12.5700 H   0  0  0  0  0  0  0  0  0  0  0  0
  1  4  1  0
  1  7  2  0
  2  4  1  0
  2  8  2  0
  2 10  1  0
  3 10  2  0
  4 12  2  0
  5  7  1  0
  5 10  1  0
  5 17  1  0
  6 23  2  0
  8 11  1  0
  9 18  1  0
 11 12  1  0
 11 14  1  0
 12 16  1  0
 13 20  1  0
 13 21  1  0
 13 23  1  0
 15 33  1  0
 16 28  2  0
 16 32  1  0
 17 18  1  0
 18 19  1  0
 18 22  1  0
 19 20  1  0
 21 22  1  0
 23 24  1  0
 24 25  1  0
 25 26  1  0
 25 27  1  0
 26 34  2  0
 26 38  1  0
 27 39  1  0
 27 40  1  0
 27 41  1  0
 28 29  1  0
 29 30  2  0
 30 33  1  0
 30 31  1  0
 31 32  2  0
 34 35  1  0
 35 36  2  0
 36 37  1  0
 37 38  2  0
  7 42  1  0
  9 43  1  0
 14 44  1  0
 14 45  1  0
 14 46  1  0
 15 47  1  0
 15 48  1  0
 15 49  1  0
 17 50  1  0
 17 51  1  0
 19 52  1  0
 19 53  1  0
 20 54  1  0
 20 55  1  0
 21 56  1  0
 21 57  1  0
 22 58  1  0
 22 59  1  0
 24 60  1  0
 24 61  1  0
 25 62  1  0
 28 63  1  0
 29 64  1  0
 31 65  1  0
 32 66  1  0
 33 67  1  0
 33 68  1  0
 34 69  1  0
 35 70  1  0
 36 71  1  0
 37 72  1  0
 38 73  1  0
M  CHG  1  15   1
M  END
