ligand.pdb
  PyMOL2.5          3D                             0

 31 31  0  0  1  0  0  0  0  0999 V2000
   10.9536   -6.2375   30.6997 H   0  0  0  0  0  0  0  0  0  0  0  0
   12.3312   -8.5748   27.6565 H   0  0  0  0  0  0  0  0  0  0  0  0
   15.3620   -1.3330   29.2840 O   0  0  0  0  0  0  0  0  0  0  0  0
   15.9760   -2.3350   28.7940 C   0  0  0  0  0  0  0  0  0  0  0  0
   17.1430   -2.2800   28.3600 O   0  0  0  0  0  0  0  0  0  0  0  0
   15.3200   -3.6800   28.7440 C   0  0  0  0  0  0  0  0  0  0  0  0
   16.1050   -4.8140   28.9390 C   0  0  0  0  0  0  0  0  0  0  0  0
   15.0060   -6.1200   28.7870 S   0  0  0  0  0  0  0  0  0  0  0  0
   13.5740   -5.1910   28.5390 C   0  0  0  0  0  0  0  0  0  0  0  0
   13.9610   -3.9050   28.5260 N   0  0  0  0  0  0  0  0  0  0  0  0
   12.2150   -5.8660   28.2960 C   0  0  0  0  0  0  0  0  0  0  0  0
   11.7300   -7.0940   29.0300 N   0  0  0  0  0  0  0  0  0  0  0  0
   11.6340   -7.0660   30.5030 C   0  0  2  0  0  0  0  0  0  0  0  0
   12.9610   -6.9030   31.2240 C   0  0  0  0  0  0  0  0  0  0  0  0
   13.3210   -8.2200   31.8790 C   0  0  0  0  0  0  0  0  0  0  0  0
   14.7880   -8.4790   31.7370 C   0  0  0  0  0  0  0  0  0  0  0  0
   12.3000   -8.4130   28.7340 C   0  0  0  0  0  0  0  0  0  0  0  0
   14.4343   -1.4341   29.6145 H   0  0  0  0  0  0  0  0  0  0  0  0
   17.1847   -4.8606   29.1439 H   0  0  0  0  0  0  0  0  0  0  0  0
   11.4599   -5.0892   28.4865 H   0  0  0  0  0  0  0  0  0  0  0  0
   12.3671   -6.2766   27.2869 H   0  0  0  0  0  0  0  0  0  0  0  0
   11.3398   -8.0622   30.8649 H   0  0  0  0  0  0  0  0  0  0  0  0
   13.7425   -6.6223   30.5026 H   0  0  0  0  0  0  0  0  0  0  0  0
   12.8795   -6.1144   31.9865 H   0  0  0  0  0  0  0  0  0  0  0  0
   13.0602   -8.1789   32.9468 H   0  0  0  0  0  0  0  0  0  0  0  0
   12.7624   -9.0311   31.3891 H   0  0  0  0  0  0  0  0  0  0  0  0
   15.2444   -8.5596   32.7346 H   0  0  0  0  0  0  0  0  0  0  0  0
   14.9428   -9.4184   31.1860 H   0  0  0  0  0  0  0  0  0  0  0  0
   15.2552   -7.6494   31.1860 H   0  0  0  0  0  0  0  0  0  0  0  0
   13.3230   -8.4645   29.1351 H   0  0  0  0  0  0  0  0  0  0  0  0
   11.6728   -9.1868   29.2008 H   0  0  0  0  0  0  0  0  0  0  0  0
  3 18  1  0  0  0  0
  3  4  1  0  0  0  0
  4  5  2  0  0  0  0
  4  6  1  0  0  0  0
  6  7  2  0  0  0  0
  7 19  1  0  0  0  0
  7  8  1  0  0  0  0
  8  9  1  0  0  0  0
  6 10  1  0  0  0  0
  9 10  2  0  0  0  0
  9 11  1  0  0  0  0
 11 12  1  0  0  0  0
 11 20  1  0  0  0  0
 11 21  1  0  0  0  0
 12 13  1  0  0  0  0
  1 13  1  0  0  0  0
 13 14  1  0  0  0  0
 13 22  1  0  0  0  0
 14 15  1  0  0  0  0
 14 23  1  0  0  0  0
 14 24  1  0  0  0  0
 15 25  1  0  0  0  0
 15 26  1  0  0  0  0
 15 16  1  0  0  0  0
 16 27  1  0  0  0  0
 16 28  1  0  0  0  0
 16 29  1  0  0  0  0
  2 17  1  0  0  0  0
 12 17  1  0  0  0  0
 17 30  1  0  0  0  0
 17 31  1  0  0  0  0
M  END
$$$$
