MOL
 OpenBabel01252021473D

 45 49  0  0  1  0  0  0  0  0999 V2000
    2.6751   -9.3173   75.3195 C   0  0  0  0  0  0  0  0  0  0  0  0
    2.8844   -7.9282   75.8612 C   0  0  0  0  0  0  0  0  0  0  0  0
    3.7015   -7.0455   75.1344 C   0  0  0  0  0  0  0  0  0  0  0  0
    3.9610   -5.7478   75.5781 C   0  0  0  0  0  0  0  0  0  0  0  0
    3.3791   -5.3682   76.7862 C   0  0  0  0  0  0  0  0  0  0  0  0
    3.4559   -4.1978   77.4948 N   0  0  0  0  0  0  0  0  0  0  0  0
    2.7570   -4.2002   78.6406 N   0  0  0  0  0  0  0  0  0  0  0  0
    2.2228   -5.4235   78.6705 C   0  0  0  0  0  0  0  0  0  0  0  0
    2.5517   -6.2024   77.5315 C   0  0  0  0  0  0  0  0  0  0  0  0
    2.2515   -7.5058   77.0592 C   0  0  0  0  0  0  0  0  0  0  0  0
    1.3281   -8.3539   77.8984 C   0  0  2  0  0  0  0  0  0  0  0  0
   -0.0892   -8.6256   77.4466 C   0  0  0  0  0  0  0  0  0  0  0  0
    0.1454   -7.7190   78.6223 C   0  0  1  0  0  0  0  0  0  0  0  0
   -0.1718   -8.1581   80.0069 C   0  0  0  0  0  0  0  0  0  0  0  0
    0.6636   -8.0206   80.8862 O   0  0  0  0  0  0  0  0  0  0  0  0
   -1.4434   -8.6701   80.1328 N   0  0  0  0  0  0  0  0  0  0  0  0
   -2.0341   -9.1658   81.3115 C   0  0  0  0  0  0  0  0  0  0  0  0
   -3.3953   -9.3267   81.5182 C   0  0  0  0  0  0  0  0  0  0  0  0
   -3.9293   -9.8041   82.6705 N   0  0  0  0  0  0  0  0  0  0  0  0
   -3.0907  -10.1526   83.6957 C   0  0  0  0  0  0  0  0  0  0  0  0
   -3.7076  -10.6535   84.8954 N   0  0  0  0  0  0  0  0  0  0  0  0
   -3.0038  -11.0462   85.9937 N   0  0  0  0  0  0  0  0  0  0  0  0
   -3.9640  -11.4282   86.8373 C   0  0  0  0  0  0  0  0  0  0  0  0
   -5.2128  -11.2604   86.2418 C   0  0  0  0  0  0  0  0  0  0  0  0
   -5.0660  -10.7700   85.0118 N   0  0  0  0  0  0  0  0  0  0  0  0
   -1.7062  -10.0241   83.5767 C   0  0  0  0  0  0  0  0  0  0  0  0
   -0.7479  -10.3578   84.5897 C   0  0  0  0  0  0  0  0  0  0  0  0
    0.1118  -10.5933   85.3332 N   0  0  0  0  0  0  0  0  0  0  0  0
   -1.1901   -9.5233   82.3640 C   0  0  0  0  0  0  0  0  0  0  0  0
    1.7472   -9.3610   74.7423 H   0  0  0  0  0  0  0  0  0  0  0  0
    3.5019   -9.6119   74.6636 H   0  0  0  0  0  0  0  0  0  0  0  0
    2.6386  -10.0544   76.1273 H   0  0  0  0  0  0  0  0  0  0  0  0
    4.1607   -7.3748   74.2032 H   0  0  0  0  0  0  0  0  0  0  0  0
    4.6004   -5.0787   75.0126 H   0  0  0  0  0  0  0  0  0  0  0  0
    3.9737   -3.3613   77.2513 H   0  0  0  0  0  0  0  0  0  0  0  0
    1.6125   -5.7039   79.5204 H   0  0  0  0  0  0  0  0  0  0  0  0
    1.8228   -9.1727   78.4216 H   0  0  0  0  0  0  0  0  0  0  0  0
   -0.4730   -9.6261   77.6158 H   0  0  0  0  0  0  0  0  0  0  0  0
   -0.4528   -8.1650   76.5355 H   0  0  0  0  0  0  0  0  0  0  0  0
   -0.0151   -6.6573   78.4623 H   0  0  0  0  0  0  0  0  0  0  0  0
   -2.0050   -8.6828   79.2903 H   0  0  0  0  0  0  0  0  0  0  0  0
   -4.1395   -9.0797   80.7667 H   0  0  0  0  0  0  0  0  0  0  0  0
   -3.7074  -11.8003   87.8195 H   0  0  0  0  0  0  0  0  0  0  0  0
   -6.2014  -11.4651   86.6293 H   0  0  0  0  0  0  0  0  0  0  0  0
   -0.1119   -9.4171   82.2544 H   0  0  0  0  0  0  0  0  0  0  0  0
  1  2  1  0  0  0  0
  1 30  1  0  0  0  0
  1 31  1  0  0  0  0
  1 32  1  0  0  0  0
  2  3  2  0  0  0  0
  3  4  1  0  0  0  0
  3 33  1  0  0  0  0
  4  5  2  0  0  0  0
  4 34  1  0  0  0  0
  5  6  1  0  0  0  0
  6  7  1  0  0  0  0
  6 35  1  0  0  0  0
  7  8  2  0  0  0  0
  8  9  1  0  0  0  0
  8 36  1  0  0  0  0
  9 10  2  0  0  0  0
  9  5  1  0  0  0  0
 10 11  1  0  0  0  0
 10  2  1  0  0  0  0
 11 12  1  0  0  0  0
 11 13  1  1  0  0  0
 11 37  1  0  0  0  0
 12 13  1  0  0  0  0
 12 38  1  0  0  0  0
 12 39  1  0  0  0  0
 13 14  1  0  0  0  0
 13 40  1  1  0  0  0
 14 15  2  0  0  0  0
 14 16  1  0  0  0  0
 16 17  1  0  0  0  0
 16 41  1  0  0  0  0
 17 18  2  0  0  0  0
 18 19  1  0  0  0  0
 18 42  1  0  0  0  0
 19 20  2  0  0  0  0
 20 21  1  0  0  0  0
 20 26  1  0  0  0  0
 21 22  1  0  0  0  0
 22 23  2  0  0  0  0
 23 24  1  0  0  0  0
 23 43  1  0  0  0  0
 24 25  2  0  0  0  0
 24 44  1  0  0  0  0
 25 21  1  0  0  0  0
 26 27  1  0  0  0  0
 26 29  2  0  0  0  0
 27 28  3  0  0  0  0
 29 17  1  0  0  0  0
 29 45  1  0  0  0  0
M  END
$$$$
